CIRCUITO RL COM FONTE SENOIDAL
* PRINT_FINAL_MATRIX
V0100 1 0 SIN 0 1 100 0 0 0 100
R0200 1 2 1
L0300 2 0 1000
.TRAN 0.1 0.0001 TRAP 1