FONTE DC
V1000 1 0 DC 1
R0100 1 0 1
.TRAN 0.1 0.001 TRAP 1.0
