FONTE PULSE
* PRINT_SOLUTION
V0200 1 0 PULSE 0 5 1 2 2 1 4 1
R0200 1 0 1
.TRAN 11 0.01 TRAP 1