MODELO PI
RPI 1 0 2500
R0200 2 0 1000
G0200 2 0 1 0 100
V0100 1 0 SIN 0 0.1 1 0 0 0 5
.TRAN 10 0.00005 TRAP 1 UIC
