NIC
R0100 1 0 1000
R0201 2 1 1000
R0203 2 3 1000
O0200 2 0 3 1
V0300 3 0 SIN 0 0.01 5 0 0 1 5
.TRAN 1 0.00005 TRAP 1 UIC
