Retificador
R0100 1 0 1000
V0200 1 0 SIN 0 30 30 0 0 0 10
.TRAN 2 0.0001 TRAP 1 UIC
