RL
R0100 1 2 1
L0100 2 0 1e-3
V0200 1 0 SIN 2 2 1 0 0 0 5
.TRAN 9E-3 1E-6 TRAP 1
