3
* PRINT_SOLUTION
R0102 1 2 1
L0300 3 0 100E-3
C0103 1 3 1.5E-4
V0200 2 0 PULSE 10 0.1 0 0 0 2 2 1
.TRAN 10 0.01 TRAP 1