4
V1000 1 0 DC 10
R0100 1 0 1
K0300 1 0 2 0 10
R0200 2 0 1
.TRAN 0.1 0.001 TRAP 1
