TRANSFORMADOR COM FONTE DC
* PRINT_SOLUTION
V1000 1 0 DC 1
R0100 1 0 1
K0000 1 0 2 0 10
R0100 0 2 1
.TRAN 0.01 0.001 TRAP 1.0